.model sky130_fd_pr__nfet_01v8__model.40 nmos (
* DC IV MOS Parameters
+ lmin=1.45e-07 lmax=1.55e-07 wmin=4.15e-07 wmax=4.25e-7
+ level=54.0
+ tnom=30.0
+ version=4.5
+ toxm=4.148e-9
+ xj=1.5e-7
+ lln=1.0
+ lwn=1.0
+ wln=1.0
+ wwn=1.0
+ lint=1.1932e-008
+ ll=0.0
+ lw=0.0
+ lwl=0.0
+ wint=2.1859e-008
+ wl=0.0
+ ww=0.0
+ wwl=0.0
+ xl=0.0
+ xw=0.0
+ mobmod=0.0
+ binunit=2.0
+ dwg=0.0
+ dwb=0.0
* BSIM4 - Model Selectors
+ igcmod=0.0
+ igbmod=0.0
+ rgatemod=0.0
+ rbodymod=1.0
+ trnqsmod=0.0
+ acnqsmod=0.0
+ fnoimod=1.0
+ tnoimod=1.0
+ permod=1.0
+ geomod=0.0
+ rdsmod=0.0
+ tempmod=0.0
+ lintnoi=-1.0e-7
+ vfbsdoff=0.0
+ lambda=0.0
+ vtl=0.0
+ lc=5.0e-9
+ xn=3.0
+ rnoia=0.94
+ rnoib=0.26
+ tnoia=1.5e+7
+ tnoib=9.9e+6
* BSIM4 - Process Parameters
+ epsrox=3.9
*(mismatch parameter sky130_fd_pr__nfet_01v8__toxe_slope_spectre)
+ toxe=4.148e-009
+ dtox=0.0
+ ndep=1.7e+17
+ nsd=1.0e+20
+ rshg=0.1
+ rsh=1
* Threshold Voltage Parameters
*(mismatch parameter sky130_fd_pr__nfet_01v8__vth0_slope_spectre)
+ vth0=0.5510780888
+ k1=0.0812012191232
+ k2=-0.14006
+ k3=2.18018
+ dvt0=0.0
+ dvt1=0.53
+ dvt2=-0.032
+ dvt0w=-3.58
+ dvt1w=1670600.0
+ dvt2w=0.068
+ w0=0.0
+ k3b=0.54
* NEW BSIM4 Parameters for Level 54
+ phin=0.0
+ lpe0=1.0325e-7
+ lpeb=-7.082e-8
+ vbm=-3.0
+ dvtp0=0.0
+ dvtp1=0.0
* Mobility Parameters
+ vsat=206294.70979999998
+ ua=0.0
+ ub=0.0
+ uc=0.0
+ rdsw=39.230509919999996
+ prwb=0.0
+ prwg=0.021507
+ wr=1.0
+ u0=0.03879799404
+ a0=1.5
+ keta=-0.0924
+ a1=0.0
+ a2=0.4882942055838001
+ ags=1.25
+ b0=0
+ b1=0
* BSIM4 - Mobility Parameters
+ eu=1.67
+ rdswmin=0.0
+ rdw=0.0
+ rdwmin=0.0
+ rsw=0.0
+ rswmin=0.0
* Subthreshold Current Parameters
*(mismatch parameter sky130_fd_pr__nfet_01v8__voff_slope_spectre)
+ voff=-0.27326305219999997
*(mismatch parameter sky130_fd_pr__nfet_01v8__nfactor_slope_spectre)
+ nfactor=40.05193758
+ up=0.0
+ ud=0.0
+ lp=1.0
+ tvfbsdoff=0.0
+ tvoff=0
+ cit=0.0
+ cdsc=0.0
+ cdscb=0.0
+ cdscd=0.002052
+ eta0=0
+ etab=-0.043998
+ dsub=0.62373
* BSIM4 - Sub-threshold parameters
+ voffl=5.8197729e-9
+ minv=0.0
* Rout Parameters
+ pclm=0.071885
+ pdiblc1=0.35697215
+ pdiblc2=0.0084061121
+ pdiblcb=-0.10329577
+ drout=0.50332666
+ pscbe1=7.9141988e+8
+ pscbe2=1.0e-12
+ pvag=0.0
+ delta=0.01
+ alpha0=3.0e-8
+ alpha1=0.85
+ beta0=13.85
* BSIM4 - Rout Parameters
+ fprout=0.0
+ pdits=0
+ pditsl=0.0
+ pditsd=0
* BSIM4 - Gate Induced Drain Leakage Model Parameters
+ agidl=0.0
+ bgidl=2.3e+9
+ cgidl=0.5
+ egidl=0.8
* BSIM4 - Gate Leakage Current Parameters
+ aigbacc=1.0
+ bigbacc=0.0
+ cigbacc=0.0
+ nigbacc=0.0
+ aigbinv=0.35
+ bigbinv=0.03
+ cigbinv=0.006
+ eigbinv=1.1
+ nigbinv=0.0
+ aigc=0.43
+ bigc=0.054
+ cigc=0.075
+ nigc=0.0
+ aigsd=0.43
+ bigsd=0.054
+ cigsd=0.075
+ dlcig=0.0
+ poxedge=1.0
+ pigcd=1.0
+ ntox=1.0
+ toxref=4.148e-9
* Temperature Effects Parameters
+ kt1=0.0
+ kt2=0.0
+ at=0.0
+ ute=0.0
+ ua1=0.0
+ ub1=0.0
+ uc1=1.4718625e-10
+ kt1l=0.0
+ prt=0.0
* BSIM4 - High Speed RF Model Parameters
+ xrcrg1=12.0
+ xrcrg2=1.0
+ rbpb=50.0
+ rbpd=50.0
+ rbps=50.0
+ rbdb=50.0
+ rbsb=50.0
+ gbmin=1.0e-12
* BSIM4 - Flicker and Thermal Noise Parameters
+ noia=2.5e+42
+ noib=0.0
+ noic=0.0
+ em=4.1000000e+7
+ af=1.0
+ ef=0.84
+ kf=0.0
+ ntnoi=1.0
* BSIM4 - Layout Dependent Parasitic Model Parameters
+ dmcg=0.0
+ dmcgt=0.0
+ dmdg=0.0
+ xgw=0.0
+ xgl=0.0
+ ngcon=1.0
* Diode DC IV Parameters
* BSIM4 - Diode DC IV parameters
+ diomod=1.0
+ njs=1.2928
+ jss=0.0027500000000000003
+ jsws=6.0e-10
+ xtis=2.0
+ bvs=11.7
+ xjbvs=1.0
+ ijthsrev=0.1
+ ijthsfwd=0.1
* Diode and FET Capacitance Parameters
+ tpb=0.0012287
+ tpbsw=0.0
+ tpbswg=0.0
+ tcj=0.000792
+ tcjsw=1.0e-5
+ tcjswg=0.0
+ cgdo=2.54e-010
+ cgso=2.54e-010
+ cgbo=1.0e-13
+ capmod=2.0
+ xpart=0.0
+ cgsl=0
+ cgdl=0
+ cf=1.4067e-12
+ clc=1.0e-7
+ cle=0.6
+ dlc=1.0494e-008
+ dwc=0
+ vfbcv=-1.0
+ acde=0.4
+ moin=6.9
+ noff=3.4037
+ voffcv=-0.17287
+ ngate=1.0e+23
+ lwc=0.0
+ llc=0.0
+ lwlc=0.0
+ wlc=0.0
+ wwc=0.0
+ wwlc=0.0
* BSIM4 - FET and Diode capacitance parameters
+ ckappas=0.6
+ cjs=0.0013459
+ mjs=0.44
+ pbs=0.729
+ cjsws=3.6001e-011
+ mjsws=0.0009
+ pbsws=0.2
+ cjswgs=2.3347e-010
+ mjswgs=0.8000
+ pbswgs=0.95578
* Stress Parameters
+ saref=1.04e-6
+ sbref=1.04e-6
+ wlod=0.0
+ kvth0=9.8e-9
+ lkvth0=0.0
+ wkvth0=.2e-6
+ pkvth0=0.0
+ llodvth=0.0
+ wlodvth=1.0
+ stk2=0.0
+ lodk2=1.0
+ lodeta0=1.0
+ ku0=-2.7e-8
+ lku0=0.0
+ wku0=0.0
+ pku0=0.0
+ llodku0=0.0
+ wlodku0=1.0
+ kvsat=0.2
+ steta0=0.0
+ tku0=0.0
)

.END
