.model sky130_fd_pr__pfet_01v8__model.1 pmos (
* DC IV MOS Parameters
+ lmin=1.45e-07 lmax=1.55e-07 wmin=1.675e-06 wmax=1.685e-6
+ level=54.0
+ tnom=30.0
+ version=4.5
+ toxm=4.23e-9
+ xj=1.5e-7
+ lln=1.0
+ lwn=1.0
+ wln=1.0
+ wwn=1.0
+ lint=-1.3994e-008
+ ll=0.0
+ lw=0.0
+ lwl=0.0
+ wint=7.3039e-009
+ wl=0.0
+ ww=0.0
+ wwl=0.0
+ xl=0.0
+ xw=0.0
+ mobmod=0.0
+ binunit=2.0
+ dwg=-5.722e-9
+ dwb=-1.7864e-8
* BSIM4 - Model Selectors
+ igcmod=0.0
+ igbmod=0.0
+ rgatemod=0.0
+ rbodymod=1.0
+ trnqsmod=0.0
+ acnqsmod=0.0
+ fnoimod=1.0
+ tnoimod=1.0
+ permod=1.0
+ geomod=0.0
+ rdsmod=0.0
+ tempmod=0.0
+ lintnoi=-2.0e-7
+ vfbsdoff=0.0
+ lambda=0.0
+ vtl=0.0
+ lc=5.0e-9
+ xn=3.0
+ rnoia=0.69
+ rnoib=0.34
+ tnoia=25.0e+6
+ tnoib=.0e-6
* BSIM4 - Process Parameters
+ epsrox=3.9
+ toxe=4.23e-009
+ dtox=0.0
+ ndep=1.7e+17
+ nsd=1.0e+20
+ rshg=0.1
+ rsh=1
* Threshold Voltage Parameters
+ vth0=-1.4835492000000001
+ k1=8.303987647183
+ k2=-0.1517296810328
+ k3=-15.845
+ dvt0=4.4955
+ dvt1=0.294
+ dvt2=0.015
+ dvt0w=-4.9772
+ dvt1w=1147200.0
+ dvt2w=-0.00896
+ w0=0.0
+ k3b=2.0
* NEW BSIM4 Parameters for Level 54
+ phin=0.0
+ lpe0=0.0
+ lpeb=0.0
+ vbm=-3.0
+ dvtp0=0.0
+ dvtp1=0.0
* Mobility Parameters
+ vsat=70108.55768
+ ua=-0.00468
+ ub=2.1056e-18
+ uc=9.1597053e-14
+ rdsw=280.59674200000006
+ prwb=-0.32348
+ prwg=0.1376
+ wr=1.0
+ u0=0.022802120004
+ a0=3.775367369106
+ keta=0.027840733
+ a1=0.0
+ a2=0.9995
+ ags=1.25
+ b0=0
+ b1=0
* BSIM4 - Mobility Parameters
+ eu=1.67
+ rdswmin=0.0
+ rdw=0.0
+ rdwmin=0.0
+ rsw=0.0
+ rswmin=0.0
* Subthreshold Current Parameters
+ voff=-0.2512318030812
+ nfactor=295.3691325
+ up=0.0
+ ud=0.0
+ lp=1.0
+ tvfbsdoff=0.0
+ tvoff=0
+ cit=1.0e-5
+ cdsc=0.00013
+ cdscb=0.00078
+ cdscd=0.0
+ eta0=0.20052327393
+ etab=-0.0356137163697
+ dsub=0.26
* BSIM4 - Sub-threshold parameters
+ voffl=0.0
+ minv=0.0
* Rout Parameters
+ pclm=0.5711555025484
+ pdiblc1=0.0195
+ pdiblc2=0.00043
+ pdiblcb=-2.4222865e-5
+ drout=1.0
+ pscbe1=8.0e+8
+ pscbe2=9.3226724e-9
+ pvag=0.0
+ delta=0.01
+ alpha0=1.0e-10
+ alpha1=1.0e-10
+ beta0=7.537679
* BSIM4 - Rout Parameters
+ fprout=0.0
+ pdits=0
+ pditsl=0.0
+ pditsd=0
* BSIM4 - Gate Induced Drain Leakage Model Parameters
+ agidl=2.8211658e-010
+ bgidl=1e009
+ cgidl=300
+ egidl=0.1
* BSIM4 - Gate Leakage Current Parameters
+ aigbacc=0.43
+ bigbacc=0.054
+ cigbacc=0.075
+ nigbacc=1.0
+ aigbinv=0.35
+ bigbinv=0.03
+ cigbinv=0.006
+ eigbinv=1.1
+ nigbinv=3.0
+ aigc=0.43
+ bigc=0.054
+ cigc=0.075
+ nigc=1.0
+ aigsd=0.43
+ bigsd=0.054
+ cigsd=0.075
+ dlcig=0.0
+ poxedge=1.0
+ pigcd=1.0
+ ntox=1.0
+ toxref=4.23e-9
* Temperature Effects Parameters
+ kt1=0.0
+ kt2=0.0
+ at=0.0
+ ute=0.0
+ ua1=0.0
+ ub1=0.0
+ uc1=0.0
+ kt1l=0.0
+ prt=0.0
* BSIM4 - High Speed RF Model Parameters
+ xrcrg1=12.0
+ xrcrg2=1.0
+ rbpb=50.0
+ rbpd=50.0
+ rbps=50.0
+ rbdb=50.0
+ rbsb=50.0
+ gbmin=1.0e-12
* BSIM4 - Flicker and Thermal Noise Parameters
+ noia=1.5e+42
+ noib=0.0
+ noic=0.0
+ em=4.1000000e+7
+ af=1.0
+ ef=1.0
+ kf=0.0
+ ntnoi=1.0
* BSIM4 - Layout Dependent Parasitic Model Parameters
+ dmcg=0.0
+ dmcgt=0.0
+ dmdg=0.0
+ xgw=0.0
+ xgl=0.0
+ ngcon=1.0
* Diode DC IV Parameters
* BSIM4 - Diode DC IV parameters
+ diomod=1.0
+ njs=1.3632
+ jss=2.1483e-5
+ jsws=8.040000000000001e-10
+ xtis=5.2
+ bvs=12.69
+ xjbvs=1.0
+ ijthsrev=0.1
+ ijthsfwd=0.1
* Diode and FET Capacitance Parameters
+ tpb=0.0020386
+ tpbsw=0.001246
+ tpbswg=0.0
+ tcj=0.0012407
+ tcjsw=0.00037357
+ tcjswg=2.0e-12
+ cgdo=5.5e-11
+ cgso=5.5e-11
+ cgbo=0.0
+ capmod=2.0
+ xpart=0.0
+ cgsl=1.0005e-011
+ cgdl=1.0005e-011
+ cf=1.2e-11
+ clc=1.0e-7
+ cle=0.6
+ dlc=-3e-09
+ dwc=0
+ vfbcv=-0.14469
+ acde=0.8
+ moin=18.13
+ noff=3.9
+ voffcv=-0.10701
+ ngate=1.0e+23
+ lwc=0.0
+ llc=0.0
+ lwlc=0.0
+ wlc=0.0
+ wwc=0.0
+ wwlc=0.0
* BSIM4 - FET and Diode capacitance parameters
+ ckappas=0.6
+ cjs=0.00074079
+ mjs=0.34629
+ pbs=0.6587
+ cjsws=9.88e-011
+ mjsws=0.29781
+ pbsws=0.7418
+ cjswgs=2.3894e-010
+ mjswgs=0.9274
+ pbswgs=1.4338
* Stress Parameters
+ saref=1.04e-6
+ sbref=1.04e-6
+ wlod=0
+ kvth0=0
+ lkvth0=0
+ wkvth0=0
+ pkvth0=0.0
+ llodvth=0.0
+ wlodvth=1.0
+ stk2=0.0
+ lodk2=1.0
+ lodeta0=1.0
+ ku0=0
+ lku0=0
+ wku0=0
+ pku0=0.0
+ llodku0=0.0
+ wlodku0=1.0
+ kvsat=0
+ steta0=0.0
+ tku0=0.0
)

.END
